
This summary information was generated by ElastoDyn on 02-Dec-2021 at 21:36:39.


Turbine features:

            Upwind, 3-bladed rotor with rigid hub.
            The model has 22 of 24 DOFs active (enabled) at start-up.
 Enabled    Platform horizontal surge translation DOF 
 Enabled    Platform horizontal sway translation DOF 
 Enabled    Platform vertical heave translation DOF 
 Enabled    Platform roll tilt rotation DOF 
 Enabled    Platform pitch tilt rotation DOF 
 Enabled    Platform yaw rotation DOF 
 Enabled    1st tower fore-aft bending mode DOF 
 Enabled    1st tower side-to-side bending mode DOF 
 Enabled    2nd tower fore-aft bending mode DOF 
 Enabled    2nd tower side-to-side bending mode DOF 
 Enabled    Nacelle yaw DOF 
 Disabled   Rotor-furl DOF 
 Enabled    Variable speed generator DOF 
 Enabled    Drivetrain rotational-flexibility DOF 
 Disabled   Tail-furl DOF 
 Enabled    1st flapwise bending-mode DOF of blade 1 
 Enabled    1st edgewise bending-mode DOF of blade 1 
 Enabled    2nd flapwise bending-mode DOF of blade 1 
 Enabled    1st flapwise bending-mode DOF of blade 2 
 Enabled    1st edgewise bending-mode DOF of blade 2 
 Enabled    2nd flapwise bending-mode DOF of blade 2 
 Enabled    1st flapwise bending-mode DOF of blade 3 
 Enabled    1st edgewise bending-mode DOF of blade 3 
 Enabled    2nd flapwise bending-mode DOF of blade 3 


Time steps:

    Structural            (s)        0.01250000


Some calculated parameters:

    Hub-Height            (m)            90.000
    Flexible Tower Length (m)            87.600
    Flexible Blade Length (m)            61.500


Rotor mass properties:

    Rotor Mass            (kg)       109389.852
    Rotor Inertia         (kg-m^2) 38677052.000
                                        Blade 1      Blade 2      Blade 3
                                        -------      -------      -------
    Mass                  (kg)        17536.615    17536.615    17536.615
    Second Mass Moment    (kg-m^2) 11752357.000 11752357.000 11752357.000
    First Mass Moment     (kg-m)     362132.719   362132.719   362132.719
    Center of Mass        (m)            20.650       20.650       20.650


Additional mass properties:

    Tower-top Mass        (kg)       349389.844
    Tower Mass            (kg)       347453.062
    Platform Mass         (kg)      5452000.000
    Mass Incl. Platform   (kg)      6148843.000


Interpolated tower properties:

Node  TwFract   HNodes  DHNodes  TMassDen    FAStiff    SSStiff
 (-)      (-)      (m)      (m)    (kg/m)     (Nm^2)     (Nm^2)
   1    0.021    1.825    3.650  5516.195  5.978E+11  5.978E+11
   2    0.062    5.475    3.650  5366.845  5.646E+11  5.646E+11
   3    0.104    9.125    3.650  5217.985  5.318E+11  5.318E+11
   4    0.146   12.775    3.650  5073.540  5.020E+11  5.020E+11
   5    0.188   16.425    3.650  4929.094  4.722E+11  4.722E+11
   6    0.229   20.075    3.650  4788.083  4.446E+11  4.446E+11
   7    0.271   23.725    3.650  4648.546  4.178E+11  4.178E+11
   8    0.312   27.375    3.650  4510.480  3.920E+11  3.920E+11
   9    0.354   31.025    3.650  4375.847  3.681E+11  3.681E+11
  10    0.396   34.675    3.650  4241.213  3.443E+11  3.443E+11
  11    0.438   38.325    3.650  4110.998  3.228E+11  3.228E+11
  12    0.479   41.975    3.650  3981.272  3.016E+11  3.016E+11
  13    0.521   45.625    3.650  3853.997  2.816E+11  2.816E+11
  14    0.563   49.275    3.650  3729.172  2.629E+11  2.629E+11
  15    0.604   52.925    3.650  3604.838  2.444E+11  2.444E+11
  16    0.646   56.575    3.650  3484.921  2.279E+11  2.279E+11
  17    0.688   60.225    3.650  3365.005  2.114E+11  2.114E+11
  18    0.729   63.875    3.650  3248.524  1.964E+11  1.964E+11
  19    0.771   67.525    3.650  3133.516  1.819E+11  1.819E+11
  20    0.813   71.175    3.650  3019.977  1.681E+11  1.681E+11
  21    0.854   74.825    3.650  2909.869  1.556E+11  1.556E+11
  22    0.896   78.475    3.650  2799.760  1.430E+11  1.430E+11
  23    0.938   82.125    3.650  2694.070  1.320E+11  1.320E+11
  24    0.979   85.775    3.650  2588.870  1.212E+11  1.212E+11


Interpolated blade 1 properties:

Node  BlFract   RNodes  DRNodes PitchAxis  StrcTwst  BMassDen    FlpStff    EdgStff
 (-)      (-)      (m)      (m)       (-)     (deg)    (kg/m)     (Nm^2)     (Nm^2)
   1    0.029    3.309    3.618     0.253    13.308   787.554  1.823E+10  1.952E+10
   2    0.088    6.926    3.618     0.294    13.308   464.487  7.021E+09  9.977E+09
   3    0.147   10.544    3.618     0.339    13.308   414.917  4.944E+09  6.990E+09
   4    0.206   14.162    3.618     0.375    12.545   412.664  3.178E+09  6.695E+09
   5    0.265   17.779    3.618     0.375    10.770   361.957  2.263E+09  4.796E+09
   6    0.324   21.397    3.618     0.375     9.757   346.452  1.862E+09  4.283E+09
   7    0.382   25.015    3.618     0.375     8.731   330.982  1.440E+09  3.835E+09
   8    0.441   28.632    3.618     0.375     7.647   304.395  9.968E+08  3.304E+09
   9    0.500   32.250    3.618     0.375     6.549   272.375  6.410E+08  2.685E+09
  10    0.559   35.868    3.618     0.375     5.498   250.787  4.010E+08  2.292E+09
  11    0.618   39.485    3.618     0.375     4.462   211.669  2.468E+08  1.610E+09
  12    0.676   43.103    3.618     0.375     3.482   177.049  1.409E+08  1.225E+09
  13    0.735   46.721    3.618     0.375     2.693   153.160  9.890E+07  9.067E+08
  14    0.794   50.338    3.618     0.375     1.993   128.005  7.145E+07  6.486E+08
  15    0.853   53.956    3.618     0.375     1.292   102.116  4.819E+07  4.472E+08
  16    0.912   57.574    3.618     0.375     0.598    77.547  3.095E+07  3.109E+08
  17    0.971   61.191    3.618     0.375     0.141    51.403  1.013E+07  1.019E+08


Interpolated blade 2 properties:

Node  BlFract   RNodes  DRNodes PitchAxis  StrcTwst  BMassDen    FlpStff    EdgStff
 (-)      (-)      (m)      (m)       (-)     (deg)    (kg/m)     (Nm^2)     (Nm^2)
   1    0.029    3.309    3.618     0.253    13.308   787.554  1.823E+10  1.952E+10
   2    0.088    6.926    3.618     0.294    13.308   464.487  7.021E+09  9.977E+09
   3    0.147   10.544    3.618     0.339    13.308   414.917  4.944E+09  6.990E+09
   4    0.206   14.162    3.618     0.375    12.545   412.664  3.178E+09  6.695E+09
   5    0.265   17.779    3.618     0.375    10.770   361.957  2.263E+09  4.796E+09
   6    0.324   21.397    3.618     0.375     9.757   346.452  1.862E+09  4.283E+09
   7    0.382   25.015    3.618     0.375     8.731   330.982  1.440E+09  3.835E+09
   8    0.441   28.632    3.618     0.375     7.647   304.395  9.968E+08  3.304E+09
   9    0.500   32.250    3.618     0.375     6.549   272.375  6.410E+08  2.685E+09
  10    0.559   35.868    3.618     0.375     5.498   250.787  4.010E+08  2.292E+09
  11    0.618   39.485    3.618     0.375     4.462   211.669  2.468E+08  1.610E+09
  12    0.676   43.103    3.618     0.375     3.482   177.049  1.409E+08  1.225E+09
  13    0.735   46.721    3.618     0.375     2.693   153.160  9.890E+07  9.067E+08
  14    0.794   50.338    3.618     0.375     1.993   128.005  7.145E+07  6.486E+08
  15    0.853   53.956    3.618     0.375     1.292   102.116  4.819E+07  4.472E+08
  16    0.912   57.574    3.618     0.375     0.598    77.547  3.095E+07  3.109E+08
  17    0.971   61.191    3.618     0.375     0.141    51.403  1.013E+07  1.019E+08


Interpolated blade 3 properties:

Node  BlFract   RNodes  DRNodes PitchAxis  StrcTwst  BMassDen    FlpStff    EdgStff
 (-)      (-)      (m)      (m)       (-)     (deg)    (kg/m)     (Nm^2)     (Nm^2)
   1    0.029    3.309    3.618     0.253    13.308   787.554  1.823E+10  1.952E+10
   2    0.088    6.926    3.618     0.294    13.308   464.487  7.021E+09  9.977E+09
   3    0.147   10.544    3.618     0.339    13.308   414.917  4.944E+09  6.990E+09
   4    0.206   14.162    3.618     0.375    12.545   412.664  3.178E+09  6.695E+09
   5    0.265   17.779    3.618     0.375    10.770   361.957  2.263E+09  4.796E+09
   6    0.324   21.397    3.618     0.375     9.757   346.452  1.862E+09  4.283E+09
   7    0.382   25.015    3.618     0.375     8.731   330.982  1.440E+09  3.835E+09
   8    0.441   28.632    3.618     0.375     7.647   304.395  9.968E+08  3.304E+09
   9    0.500   32.250    3.618     0.375     6.549   272.375  6.410E+08  2.685E+09
  10    0.559   35.868    3.618     0.375     5.498   250.787  4.010E+08  2.292E+09
  11    0.618   39.485    3.618     0.375     4.462   211.669  2.468E+08  1.610E+09
  12    0.676   43.103    3.618     0.375     3.482   177.049  1.409E+08  1.225E+09
  13    0.735   46.721    3.618     0.375     2.693   153.160  9.890E+07  9.067E+08
  14    0.794   50.338    3.618     0.375     1.993   128.005  7.145E+07  6.486E+08
  15    0.853   53.956    3.618     0.375     1.292   102.116  4.819E+07  4.472E+08
  16    0.912   57.574    3.618     0.375     0.598    77.547  3.095E+07  3.109E+08
  17    0.971   61.191    3.618     0.375     0.141    51.403  1.013E+07  1.019E+08


Requested Outputs:


 Col   Parameter            Units               
 ---   ---------------      ---------------     
   0   Time                 (s)                 
   1   NcIMUTAxs            (m/s^2)             
   2   NcIMUTAys            (m/s^2)             
   3   NcIMUTAzs            (m/s^2)             
   4   TTDspFA              (m)                 
   5   TTDspSS              (m)                 
   6   TTDspTwst            (deg)               
   7   PtfmSurge            (m)                 
   8   PtfmSway             (m)                 
   9   PtfmHeave            (m)                 
  10   PtfmRoll             (deg)               
  11   PtfmPitch            (deg)               
  12   PtfmYaw              (deg)               
  13   PtfmTAxt             (m/s^2)             
  14   PtfmTAyt             (m/s^2)             
  15   PtfmTAzt             (m/s^2)             
  16   YawBrFxp             (kN)                
  17   YawBrFyp             (kN)                
  18   YawBrFzp             (kN)                
  19   YawBrMxp             (kN-m)              
  20   YawBrMyp             (kN-m)              
  21   YawBrMzp             (kN-m)              
  22   TwrBsFxt             (kN)                
  23   TwrBsFyt             (kN)                
  24   TwrBsFzt             (kN)                
  25   TwrBsMxt             (kN-m)              
  26   TwrBsMyt             (kN-m)              
  27   TwrBsMzt             (kN-m)              
  28   TwHt1MLxt            (kN-m)              
  29   TwHt1MLyt            (kN-m)              
  30   TwHt2MLxt            (kN-m)              
  31   TwHt2MLyt            (kN-m)              
  32   TwHt3MLxt            (kN-m)              
  33   TwHt3MLyt            (kN-m)              
  34   TwHt4MLxt            (kN-m)              
  35   TwHt4MLyt            (kN-m)              
  36   TwHt5MLxt            (kN-m)              
  37   TwHt5MLyt            (kN-m)              
  38   TwHt6MLxt            (kN-m)              
  39   TwHt6MLyt            (kN-m)              
  40   TwHt7MLxt            (kN-m)              
  41   TwHt7MLyt            (kN-m)              
  42   TwHt8MLxt            (kN-m)              
  43   TwHt8MLyt            (kN-m)              
  44   TwHt9MLxt            (kN-m)              
  45   TwHt9MLyt            (kN-m)              
  46   TwHt1TDxt            (m)                 
  47   TwHt1TDyt            (m)                 
  48   TwHt2TDxt            (m)                 
  49   TwHt2TDyt            (m)                 
  50   TwHt3TDxt            (m)                 
  51   TwHt3TDyt            (m)                 
  52   TwHt4TDxt            (m)                 
  53   TwHt4TDyt            (m)                 
  54   TwHt5TDxt            (m)                 
  55   TwHt5TDyt            (m)                 
  56   TwHt6TDxt            (m)                 
  57   TwHt6TDyt            (m)                 
  58   TwHt7TDxt            (m)                 
  59   TwHt7TDyt            (m)                 
  60   TwHt8TDxt            (m)                 
  61   TwHt8TDyt            (m)                 
  62   TwHt9TDxt            (m)                 
  63   TwHt9TDyt            (m)                 


  Requested Output Channels at each blade station:
 Col   Parameter            Units               
 ---   ---------------      ---------------     
